<routes>
    <vType id="ai_car" accel="2.5" decel="4.5" length="5" maxSpeed="50"/>
    <route id="r_bottom0A0" edges="bottom0A0 A0left0"/>
    <route id="r_left0A0" edges="left0A0 A0bottom0"/>
    <route id="r_right0A0" edges="right0A0 A0bottom0"/>
    <route id="r_top0A0" edges="top0A0 A0bottom0"/>
    <vehicle id="car_0" type="ai_car" route="r_bottom0A0" depart="0" departPos="130" />
    <vehicle id="car_1" type="ai_car" route="r_left0A0" depart="0" departPos="130" />
    <vehicle id="car_2" type="ai_car" route="r_right0A0" depart="0" departPos="130" />
    <vehicle id="car_3" type="ai_car" route="r_top0A0" depart="0" departPos="130" />
</routes>